Version 4
SHEET 1 1292 680
WIRE 208 -208 -80 -208
WIRE 624 -208 208 -208
WIRE 976 -208 624 -208
WIRE -80 -176 -80 -208
WIRE 624 -16 624 -208
WIRE 624 -16 576 -16
WIRE 464 0 -64 0
WIRE 736 16 576 16
WIRE 592 48 576 48
WIRE 976 112 976 -208
WIRE 976 112 928 112
WIRE 208 128 208 -208
WIRE 208 128 160 128
WIRE 736 128 736 16
WIRE 816 128 736 128
WIRE 48 144 -32 144
WIRE 1152 144 928 144
WIRE -32 160 -32 144
WIRE -32 160 -64 160
WIRE 816 160 736 160
WIRE -32 176 -32 160
WIRE 48 176 -32 176
WIRE 944 176 928 176
WIRE 176 192 160 192
WIRE 624 272 624 -16
WIRE 624 272 576 272
WIRE 736 304 736 160
WIRE 736 304 576 304
WIRE 464 320 -64 320
WIRE 592 336 592 48
WIRE 592 336 576 336
WIRE 176 432 176 192
WIRE 176 432 96 432
WIRE 592 432 592 336
WIRE 592 432 176 432
WIRE 944 432 944 176
WIRE 944 432 592 432
WIRE 96 464 96 432
FLAG -64 0 In1
IOPIN -64 0 In
FLAG -64 320 In2
IOPIN -64 320 In
FLAG -64 160 Selector
IOPIN -64 160 In
FLAG 1152 144 Output
IOPIN 1152 144 Out
FLAG 96 464 0
FLAG -80 -96 0
SYMBOL cmos-nand 96 160 R0
SYMATTR InstName X1
SYMBOL cmos-nand 512 16 R0
SYMATTR InstName X2
SYMBOL cmos-nand 512 304 R0
SYMATTR InstName X3
SYMBOL cmos-nand 864 144 R0
SYMATTR InstName X4
SYMBOL voltage -80 -192 R0
WINDOW 123 0 0 Left 0
WINDOW 39 0 0 Left 0
SYMATTR InstName V1
SYMATTR Value 5v
