Version 4
SHEET 1 880 680
WIRE 16 64 -96 64
WIRE 288 96 176 96
WIRE 16 112 -96 112
WIRE 288 144 288 96
WIRE 352 144 288 144
WIRE 656 176 512 176
WIRE 352 192 288 192
WIRE 16 240 -96 240
WIRE 288 272 288 192
WIRE 288 272 176 272
WIRE 16 288 -96 288
FLAG -96 64 A
IOPIN -96 64 In
FLAG -96 112 B
IOPIN -96 112 In
FLAG -96 240 C
IOPIN -96 240 In
FLAG -96 288 D
IOPIN -96 288 In
FLAG 656 176 Output
IOPIN 656 176 Out
SYMBOL AND_Gate 112 112 R0
SYMATTR InstName X1
SYMBOL AND_Gate 448 192 R0
SYMATTR InstName X2
SYMBOL AND_Gate 112 288 R0
SYMATTR InstName X3
