Version 4
SHEET 1 880 680
WIRE 0 -208 -304 -208
WIRE 48 -144 -304 -144
WIRE 512 -128 256 -128
WIRE 48 -112 -64 -112
WIRE -16 -80 -304 -80
WIRE 0 -80 0 -208
WIRE 48 -80 0 -80
WIRE 336 -80 256 -80
WIRE 512 -64 368 -64
WIRE 336 -32 336 -80
WIRE 336 -32 -144 -32
WIRE -32 -16 -304 -16
WIRE 512 0 384 0
WIRE -48 48 -304 48
WIRE -16 64 -16 -80
WIRE 48 64 -16 64
WIRE 512 64 400 64
WIRE 368 80 368 -64
WIRE 368 80 256 80
WIRE 48 96 -80 96
WIRE -144 128 -144 -32
WIRE 48 128 -144 128
WIRE 336 128 256 128
WIRE -64 144 -64 -112
WIRE -64 144 -304 144
WIRE -80 208 -80 96
WIRE -80 208 -304 208
WIRE 336 240 336 128
WIRE 336 240 -176 240
WIRE -96 272 -304 272
WIRE -32 304 -32 -16
WIRE 48 304 -32 304
WIRE 384 320 384 0
WIRE 384 320 256 320
WIRE -112 336 -304 336
WIRE -96 336 -96 272
WIRE 48 336 -96 336
WIRE -176 368 -176 240
WIRE 48 368 -176 368
WIRE 336 368 256 368
WIRE 336 448 336 368
WIRE 336 448 -80 448
WIRE -48 512 -48 48
WIRE 48 512 -48 512
WIRE 400 528 400 64
WIRE 400 528 256 528
WIRE -112 544 -112 336
WIRE 48 544 -112 544
WIRE -80 576 -80 448
WIRE 48 576 -80 576
WIRE 512 576 256 576
FLAG -304 -144 A1
IOPIN -304 -144 In
FLAG -304 -80 A2
IOPIN -304 -80 In
FLAG -304 -16 A3
IOPIN -304 -16 In
FLAG -304 48 A4
IOPIN -304 48 In
FLAG -304 144 B1
IOPIN -304 144 In
FLAG -304 208 B2
IOPIN -304 208 In
FLAG -304 272 B3
IOPIN -304 272 In
FLAG -304 336 B4
IOPIN -304 336 In
FLAG 512 -128 Sum1
IOPIN 512 -128 Out
FLAG 512 -64 Sum2
IOPIN 512 -64 Out
FLAG 512 0 Sum3
IOPIN 512 0 Out
FLAG 512 64 Sum4
IOPIN 512 64 Out
FLAG 512 576 Cout4
IOPIN 512 576 Out
FLAG -304 -208 Cin
IOPIN -304 -208 In
SYMBOL 1_Bit_Full_Adder 144 112 R0
SYMATTR InstName X1
SYMBOL 1_Bit_Full_Adder 144 352 R0
SYMATTR InstName X2
SYMBOL 1_Bit_Full_Adder 144 -96 R0
SYMATTR InstName X3
SYMBOL 1_Bit_Full_Adder 144 560 R0
SYMATTR InstName X4
