Version 4
SHEET 1 880 680
WIRE 208 -48 112 -48
WIRE 112 -32 112 -48
WIRE 208 64 208 -48
WIRE 480 64 208 64
WIRE 208 128 208 64
WIRE 208 128 144 128
WIRE 480 128 480 64
WIRE 480 128 448 128
WIRE 32 144 -48 144
WIRE 336 144 288 144
WIRE 288 160 288 144
WIRE 288 160 144 160
WIRE 576 160 448 160
WIRE 32 176 -48 176
WIRE 288 176 288 160
WIRE 336 176 288 176
WIRE 208 192 144 192
WIRE 480 192 448 192
WIRE 208 272 208 192
WIRE 208 272 112 272
WIRE 480 272 480 192
WIRE 480 272 208 272
WIRE 112 304 112 272
FLAG 112 48 0
FLAG 112 304 0
FLAG -48 144 A
IOPIN -48 144 In
FLAG -48 176 B
IOPIN -48 176 In
FLAG 576 160 Output
IOPIN 576 160 Out
SYMBOL cmos-nand 80 160 R0
SYMATTR InstName X1
SYMBOL cmos-nand 384 160 R0
SYMATTR InstName X2
SYMBOL voltage 112 -48 R0
WINDOW 123 0 0 Left 0
WINDOW 39 0 0 Left 0
SYMATTR InstName V1
SYMATTR Value 5v
