Version 4
SHEET 1 1364 680
WIRE -256 -64 -304 -64
WIRE 544 -64 -256 -64
WIRE -272 -16 -304 -16
WIRE -256 0 -256 -64
WIRE -192 0 -256 0
WIRE -240 16 -304 16
WIRE -272 32 -272 -16
WIRE -192 32 -272 32
WIRE -256 48 -304 48
WIRE -240 64 -240 16
WIRE -192 64 -240 64
WIRE 272 64 0 64
WIRE -272 80 -304 80
WIRE -256 96 -256 48
WIRE -192 96 -256 96
WIRE 240 96 0 96
WIRE 544 96 544 -64
WIRE 784 96 544 96
WIRE -272 112 -272 80
WIRE -224 112 -272 112
WIRE 240 112 240 96
WIRE 272 112 240 112
WIRE -240 128 -304 128
WIRE -224 128 -224 112
WIRE -192 128 -224 128
WIRE 224 128 0 128
WIRE 784 144 448 144
WIRE 1168 144 976 144
WIRE -256 160 -304 160
WIRE -240 160 -240 128
WIRE -192 160 -240 160
WIRE 208 160 0 160
WIRE 224 160 224 128
WIRE 272 160 224 160
WIRE -272 192 -304 192
WIRE -256 192 -256 160
WIRE -192 192 -256 192
WIRE 784 192 544 192
WIRE 208 208 208 160
WIRE 272 208 208 208
WIRE -288 224 -304 224
WIRE -272 224 -272 192
WIRE -192 224 -272 224
WIRE 240 240 0 240
WIRE -288 256 -288 224
WIRE -192 256 -288 256
WIRE 240 304 240 240
WIRE 544 304 544 192
WIRE 544 304 240 304
FLAG -304 -64 Cin
IOPIN -304 -64 In
FLAG -304 -16 A1
IOPIN -304 -16 In
FLAG -304 16 A2
IOPIN -304 16 In
FLAG -304 48 A3
IOPIN -304 48 In
FLAG -304 80 A4
IOPIN -304 80 In
FLAG -304 128 B1
IOPIN -304 128 In
FLAG -304 160 B2
IOPIN -304 160 In
FLAG -304 192 B3
IOPIN -304 192 In
FLAG -304 224 B4
IOPIN -304 224 In
FLAG 1168 144 FinalOutput
IOPIN 1168 144 Out
SYMBOL 8pin_in_Full_Adder -48 96 R0
SYMATTR InstName X1
SYMBOL 4_input_AND_Gate 416 208 R0
SYMATTR InstName X2
SYMBOL 2_1_Multiplexer 864 144 R0
SYMATTR InstName X3
