Version 4
SHEET 1 1340 680
WIRE 896 -160 320 -160
WIRE 896 -112 352 -112
WIRE 0 -80 -160 -80
WIRE 896 -64 368 -64
WIRE -16 -16 -160 -16
WIRE 896 -16 384 -16
WIRE 0 16 0 -80
WIRE 32 16 0 16
WIRE -32 32 -160 32
WIRE -16 48 -16 -16
WIRE 32 48 -16 48
WIRE -48 80 -160 80
WIRE -32 80 -32 32
WIRE 32 80 -32 80
WIRE 320 80 320 -160
WIRE 320 80 224 80
WIRE 528 80 320 80
WIRE -48 112 -48 80
WIRE 32 112 -48 112
WIRE 352 112 352 -112
WIRE 352 112 224 112
WIRE 384 112 384 -16
WIRE 384 112 352 112
WIRE -64 128 -160 128
WIRE 384 128 384 112
WIRE 528 128 384 128
WIRE -64 144 -64 128
WIRE 32 144 -64 144
WIRE 368 144 368 -64
WIRE 368 144 224 144
WIRE 896 160 704 160
WIRE 32 176 -160 176
WIRE 352 176 224 176
WIRE 368 176 368 144
WIRE 528 176 368 176
WIRE 32 208 -16 208
WIRE -16 224 -16 208
WIRE -16 224 -160 224
WIRE 352 224 352 176
WIRE 384 224 384 128
WIRE 384 224 352 224
WIRE 528 224 384 224
WIRE 32 240 -32 240
WIRE 272 256 224 256
WIRE -32 272 -32 240
WIRE -32 272 -160 272
WIRE 32 272 -16 272
WIRE 272 304 272 256
WIRE 896 304 272 304
WIRE -16 320 -16 272
WIRE -16 320 -160 320
FLAG 896 160 Prognate
IOPIN 896 160 Out
FLAG 896 -160 Sum1
IOPIN 896 -160 Out
FLAG 896 -112 Sum2
IOPIN 896 -112 Out
FLAG 896 -64 Sum3
IOPIN 896 -64 Out
FLAG 896 -16 Sum4
IOPIN 896 -16 Out
FLAG 896 304 Cout4
IOPIN 896 304 Out
FLAG -160 -80 Cin
IOPIN -160 -80 In
FLAG -160 -16 A1
IOPIN -160 -16 In
FLAG -160 32 A2
IOPIN -160 32 In
FLAG -160 80 A3
IOPIN -160 80 In
FLAG -160 128 A4
IOPIN -160 128 In
FLAG -160 176 B1
IOPIN -160 176 In
FLAG -160 224 B2
IOPIN -160 224 In
FLAG -160 272 B3
IOPIN -160 272 In
FLAG -160 320 B4
IOPIN -160 320 In
SYMBOL 8pin_in_Full_Adder 176 112 R0
SYMATTR InstName Full_Adder
SYMBOL 4_input_AND_Gate 672 224 R0
SYMATTR InstName 4in_AND_Gate
